Circuit: * C:\users\devsploit\My Documents\grootvoet\Hardware\Kleinvoet\spice\DiffLine.asc


Date: Wed Jun 10 19:26:49 2020
Total elapsed time: 0.041 seconds.

tnom = 27
temp = 27
method = trap
totiter = 0
traniter = 0
tranpoints = 0
accept = 0
rejected = 0
matrix size = 12
fillins = 2
solver = Normal

