Circuit: * C:\users\devsploit\My Documents\grootvoet\Hardware\Kleinvoet\spice\DiffAmp-LineDriver.asc

Direct Newton iteration for .op point succeeded.

Date: Tue Jun 09 16:31:45 2020
Total elapsed time: 0.080 seconds.

tnom = 27
temp = 27
method = modified trap
totiter = 2142
traniter = 2099
tranpoints = 1046
accept = 1045
rejected = 1
matrix size = 24
fillins = 32
solver = Normal
Matrix Compiler1: 2.93 KB object code size  0.6/0.3/[0.2]
Matrix Compiler2: off  [0.3]/0.4/0.4

